Version 4.1
SHEET 1 880 1032
WIRE 240 224 240 192
WIRE 256 224 256 192
WIRE 288 224 288 192
WIRE 176 240 176 192
WIRE 192 240 192 192
WIRE 208 240 208 192
WIRE 112 256 112 192
WIRE 128 256 128 192
WIRE 144 256 144 192
WIRE 160 256 160 192
WIRE 48 272 48 192
WIRE 64 272 64 192
WIRE 80 272 80 192
WIRE 96 272 96 192
WIRE 64 432 -48 432
WIRE 128 432 64 432
WIRE 288 432 128 432
WIRE 224 464 224 192
WIRE 240 464 224 464
WIRE 272 480 272 192
WIRE 272 480 240 480
WIRE 128 528 -48 528
WIRE 240 528 240 496
WIRE 240 528 128 528
WIRE 288 528 240 528
WIRE -112 576 -240 576
WIRE -48 576 -112 576
WIRE 128 576 -48 576
WIRE -48 672 -240 672
WIRE 128 672 -48 672
WIRE -272 720 -416 720
WIRE -240 720 -272 720
WIRE -48 720 -240 720
WIRE -240 816 -416 816
WIRE -48 816 -240 816
WIRE -416 864 -592 864
WIRE -368 864 -416 864
WIRE -240 864 -368 864
WIRE -416 960 -592 960
WIRE -240 960 -416 960
FLAG 304 96 vcc
IOPIN 304 96 In
FLAG 320 96 gnd
IOPIN 320 96 In
FLAG 224 96 b0
IOPIN 224 96 In
FLAG 208 96 b1
IOPIN 208 96 In
FLAG 192 96 b2
IOPIN 192 96 In
FLAG 176 96 b3
IOPIN 176 96 In
FLAG 160 96 a0
IOPIN 160 96 In
FLAG 144 96 a1
IOPIN 144 96 In
FLAG 128 96 a2
IOPIN 128 96 In
FLAG 112 96 a3
IOPIN 112 96 In
FLAG 288 224 s0
IOPIN 288 224 Out
FLAG 64 432 vdd
IOPIN 64 432 In
FLAG -112 576 vdd
IOPIN -112 576 In
FLAG -272 720 vdd
IOPIN -272 720 In
FLAG -368 864 vdd
IOPIN -368 864 In
FLAG 128 672 gnd
IOPIN 128 672 In
FLAG -48 816 gnd
IOPIN -48 816 In
FLAG -240 960 gnd
IOPIN -240 960 In
FLAG 288 528 gnd
IOPIN 288 528 In
SYMBOL partial_product_generator 176 144 R0
SYMATTR InstName X1
SYMBOL fa 288 480 R0
SYMATTR InstName X2
SYMBOL fa 128 480 R0
SYMATTR InstName X3
SYMBOL fa -48 480 R0
SYMATTR InstName X4
SYMBOL fa 128 624 R0
SYMATTR InstName X5
SYMBOL fa -48 624 R0
SYMATTR InstName X6
SYMBOL fa -240 624 R0
SYMATTR InstName X7
SYMBOL fa -48 768 R0
SYMATTR InstName X8
SYMBOL fa -240 768 R0
SYMATTR InstName X9
SYMBOL fa -416 768 R0
SYMATTR InstName X10
SYMBOL fa -240 912 R0
SYMATTR InstName X12
SYMBOL fa -416 912 R0
SYMATTR InstName X13
SYMBOL fa -592 912 R0
SYMATTR InstName X14
TEXT 256 168 Left 0 ;b0
TEXT 200 168 Left 0 ;b1
TEXT 128 168 Left 0 ;b2
TEXT 72 168 Left 0 ;b3
