Version 4.1
SHEET 1 952 680
WIRE 432 16 368 16
WIRE 672 32 640 32
WIRE 736 32 672 32
WIRE 432 48 432 16
WIRE 592 64 544 64
WIRE 688 96 640 96
WIRE 736 96 688 96
WIRE 368 112 368 16
WIRE 368 112 336 112
WIRE 336 144 336 112
WIRE 496 160 464 160
WIRE 752 192 704 192
WIRE 800 192 752 192
WIRE 496 208 496 160
WIRE 528 208 496 208
WIRE 656 224 640 224
WIRE 528 240 496 240
WIRE 752 256 704 256
WIRE 800 256 752 256
WIRE 496 288 496 240
WIRE 496 288 464 288
FLAG 256 0 A
IOPIN 256 0 In
FLAG 256 32 B
IOPIN 256 32 In
FLAG 336 272 A
IOPIN 336 272 In
FLAG 336 304 B
IOPIN 336 304 In
FLAG 336 176 Ci
IOPIN 336 176 In
FLAG 432 80 Ci
IOPIN 432 80 In
FLAG 304 -32 vdd
IOPIN 304 -32 In
FLAG 480 16 vdd
IOPIN 480 16 In
FLAG 384 112 vdd
IOPIN 384 112 In
FLAG 576 176 vdd
IOPIN 576 176 In
FLAG 384 240 vdd
IOPIN 384 240 In
FLAG 304 64 gnd
IOPIN 304 64 In
FLAG 480 112 gnd
IOPIN 480 112 In
FLAG 384 336 gnd
IOPIN 384 336 In
FLAG 576 272 gnd
IOPIN 576 272 In
FLAG 384 208 gnd
IOPIN 384 208 In
FLAG 672 32 vdd
IOPIN 672 32 In
FLAG 752 192 vdd
IOPIN 752 192 In
FLAG 784 64 S
IOPIN 784 64 Out
FLAG 848 224 Co
IOPIN 848 224 Out
FLAG 688 96 gnd
IOPIN 688 96 In
FLAG 752 256 gnd
IOPIN 752 256 In
SYMBOL xor 304 16 R0
SYMATTR InstName X1
SYMBOL xor 480 64 R0
SYMATTR InstName X2
SYMBOL and 384 288 R0
SYMATTR InstName X3
SYMBOL and 384 160 R0
SYMATTR InstName X4
SYMBOL or 576 224 R0
SYMATTR InstName X5
SYMBOL inv 640 64 R0
SYMATTR InstName X6
SYMBOL inv 736 64 R0
SYMATTR InstName X7
SYMBOL inv 704 224 R0
SYMATTR InstName X8
SYMBOL inv 800 224 R0
SYMATTR InstName X9
