Version 4.1
SHEET 1 880 680
WIRE 240 80 192 80
WIRE 192 96 192 80
WIRE 192 96 144 96
WIRE 208 96 192 96
WIRE 240 96 240 80
WIRE 320 112 304 112
WIRE 144 128 144 96
WIRE 144 128 -16 128
WIRE 160 128 144 128
WIRE 320 128 304 128
WIRE 320 144 304 144
WIRE 320 160 304 160
WIRE -16 176 -16 128
WIRE 160 176 -16 176
WIRE 320 176 304 176
WIRE -16 192 -16 176
WIRE 320 192 304 192
WIRE 320 208 288 208
WIRE 272 224 272 208
WIRE 320 224 272 224
FLAG 192 288 0
FLAG 208 208 0
FLAG 224 96 0
FLAG 256 96 0
FLAG 160 144 0
FLAG 160 160 0
FLAG -16 272 0
DATAFLAG 320 224 ""
DATAFLAG 320 208 ""
DATAFLAG 320 192 ""
DATAFLAG 320 176 ""
DATAFLAG 320 160 ""
DATAFLAG 320 144 ""
DATAFLAG 320 128 ""
DATAFLAG 320 112 ""
SYMBOL array_multiplier 224 160 R0
SYMATTR InstName X1
SYMBOL voltage 192 192 R0
WINDOW 123 0 0 Left 0
WINDOW 39 0 0 Left 0
SYMATTR InstName V1
SYMATTR Value 5
SYMBOL voltage -16 176 R0
WINDOW 123 0 0 Left 0
WINDOW 39 0 0 Left 0
SYMATTR InstName V2
SYMATTR Value 5
TEXT 208 120 Left 0 ;b3 b2 b1 b0
TEXT 184 136 Left 0 ;a3\na2\na1\na0
TEXT -48 312 Left 2 !.tran 0.1
TEXT 408 72 Left 2 ;01011010 = 1001 x 1010\n90             = 9       x     10
